
OS:Version,
  {5d21eb93-a77b-4482-b78e-77799b15b3e0}, !- Handle
  1.7.0;                                  !- Version Identifier

OS:ClimateZones,
  {e072faf0-e790-49c7-a6d3-8f1b76c3c779}, !- Handle
  ,                                       !- Active Institution
  ,                                       !- Active Year
  ASHRAE,                                 !- Climate Zone Institution Name 1
  ANSI/ASHRAE Standard 169,               !- Climate Zone Document Name 1
  2006,                                   !- Climate Zone Document Year 1
  ,                                       !- Climate Zone Value 1
  CEC,                                    !- Climate Zone Institution Name 2
  California Climate Zone Descriptions,   !- Climate Zone Document Name 2
  1995,                                   !- Climate Zone Document Year 2
  ;                                       !- Climate Zone Value 2

OS:LifeCycleCost:Parameters,
  {86b2a1bb-ce02-4c3e-8038-0f61c947e17c}, !- Handle
  FEMP,                                   !- Analysis Type
  ,                                       !- Discounting Convention
  ,                                       !- Inflation Approach
  ,                                       !- Real Discount Rate
  ,                                       !- Nominal Discount Rate
  ,                                       !- Inflation
  ,                                       !- Base Date Month
  ,                                       !- Base Date Year
  ,                                       !- Service Date Month
  ,                                       !- Service Date Year
  ,                                       !- Length of Study Period in Years
  ,                                       !- Tax Rate
  ,                                       !- Depreciation Method
  Yes;                                    !- Use NIST Fuel Escalation Rates

OS:YearDescription,
  {32a4131f-c0c8-45d7-974a-528ef730872c}, !- Handle
  ,                                       !- Calendar Year
  Sunday;                                 !- Day of Week for Start Day

OS:RadianceParameters,
  {25522865-3e98-4577-aaad-950a1ee3ad67}, !- Handle
  1,                                      !- Accumulated Rays per Record
  0,                                      !- Direct Threshold
  1,                                      !- Direct Certainty
  1,                                      !- Direct Jitter
  1,                                      !- Direct Pretest
  6,                                      !- Ambient Bounces VMX
  2,                                      !- Ambient Bounces DMX
  4050,                                   !- Ambient Divisions VMX
  512,                                    !- Ambient Divisions DMX
  256,                                    !- Ambient Supersamples
  0.001,                                  !- Limit Weight VMX
  0.001,                                  !- Limit Weight DMX
  500,                                    !- Klems Sampling Density
  146;                                    !- Sky Discretization Resolution

OS:SimulationControl,
  {c877e00a-fc7d-458f-86ea-d859548ccb99}, !- Handle
  ,                                       !- Do Zone Sizing Calculation
  ,                                       !- Do System Sizing Calculation
  ,                                       !- Do Plant Sizing Calculation
  ,                                       !- Run Simulation for Sizing Periods
  No;                                     !- Run Simulation for Weather File Run Periods

OS:Sizing:Parameters,
  {5e8483c5-f917-4225-b2dc-3cd367653c0e}, !- Handle
  1.25,                                   !- Heating Sizing Factor
  1.15;                                   !- Cooling Sizing Factor

OS:ProgramControl,
  {894598e6-099e-4745-8597-84f58364c584}; !- Handle

OS:Timestep,
  {43cb8ce0-aee5-44f6-aaa5-2c1084a62adc}, !- Handle
  6;                                      !- Number of Timesteps per Hour

OS:OutputControl:ReportingTolerances,
  {9dff68dd-e287-4954-b5c3-a5e0c5a1bd7c}; !- Handle

OS:ConvergenceLimits,
  {5a2388d3-1c4f-4e96-868b-2f47a42a122c}; !- Handle

OS:ShadowCalculation,
  {fa6a76b1-cee8-4ffb-b07e-2e17aae62793}, !- Handle
  7,                                      !- Calculation Frequency
  15000;                                  !- Maximum Figures in Shadow Overlap Calculations

OS:SurfaceConvectionAlgorithm:Inside,
  {43a48306-a8f6-4360-ad1b-7cb42fdeca5e}, !- Handle
  TARP;                                   !- Algorithm

OS:SurfaceConvectionAlgorithm:Outside,
  {3744074a-4eb2-464d-b341-913dd7100877}, !- Handle
  DOE-2;                                  !- Algorithm

OS:HeatBalanceAlgorithm,
  {6f74ed14-688d-4257-8c33-c0d5f61bf463}, !- Handle
  ConductionTransferFunction,             !- Algorithm
  200;                                    !- Surface Temperature Upper Limit {F}

OS:ZoneAirHeatBalanceAlgorithm,
  {d238865b-d368-48fb-88de-621f0ec627fa}, !- Handle
  AnalyticalSolution;                     !- Algorithm

OS:ZoneAirContaminantBalance,
  {dab09de8-0755-4d44-91cb-2bcdf82d83ab}; !- Handle

OS:ZoneCapacitanceMultiplier:ResearchSpecial,
  {8e155129-6e2f-4815-a32b-15f5cba1263c}, !- Handle
  ,                                       !- Temperature Capacity Multiplier
  ,                                       !- Humidity Capacity Multiplier
  ;                                       !- Carbon Dioxide Capacity Multiplier

OS:RunPeriod,
  {920a0013-c77d-4315-9236-f854dd6f0c60}, !- Handle
  Run Period 1,                           !- Name
  1,                                      !- Begin Month
  1,                                      !- Begin Day of Month
  12,                                     !- End Month
  31,                                     !- End Day of Month
  ,                                       !- Use Weather File Holidays and Special Days
  ,                                       !- Use Weather File Daylight Saving Period
  ,                                       !- Apply Weekend Holiday Rule
  ,                                       !- Use Weather File Rain Indicators
  ,                                       !- Use Weather File Snow Indicators
  ;                                       !- Number of Times Runperiod to be Repeated

OS:Building,
  {293fb1db-729c-4de7-880a-811e476fdf49}, !- Handle
  Building 1,                             !- Name
  ,                                       !- Building Sector Type
  ,                                       !- North Axis {deg}
  ,                                       !- Nominal Floor to Floor Height {m}
  {6ade7f8b-69af-4ee9-9b6a-276252895b45}, !- Space Type Name
  {d4e129ae-8655-49f3-956c-d4b9a9269d6d}, !- Default Construction Set Name
  ;                                       !- Default Schedule Set Name

OS:Facility,
  {ba8a65fe-0cc4-4209-bf9a-113196baaa79}; !- Handle

OS:BuildingStory,
  {f65acb00-5000-4af2-893c-402853f09320}, !- Handle
  Story 1,                                !- Name
  0,                                      !- Nominal Z Coordinate {m}
  3.048,                                  !- Nominal Floor to Floor Height {m}
  ,                                       !- Default Construction Set Name
  ,                                       !- Default Schedule Set Name
  {1778cd54-8157-4465-93aa-5d2662f0f401}; !- Group Rendering Name

OS:Space,
  {34b9b29b-9ca2-42ad-a02f-5ed4a522102f}, !- Handle
  Story 1 West Perimeter Space,           !- Name
  ,                                       !- Space Type Name
  ,                                       !- Default Construction Set Name
  ,                                       !- Default Schedule Set Name
  -0,                                     !- Direction of Relative North {deg}
  0,                                      !- X Origin {m}
  0,                                      !- Y Origin {m}
  0,                                      !- Z Origin {m}
  {f65acb00-5000-4af2-893c-402853f09320}, !- Building Story Name
  {f2523e78-c4cc-4d5a-bb1d-a08c226dbb41}; !- Thermal Zone Name

OS:Surface,
  {55a926a5-12cb-432d-b06f-a0d41a73679d}, !- Handle
  Surface 1,                              !- Name
  Floor,                                  !- Surface Type
  ,                                       !- Construction Name
  {34b9b29b-9ca2-42ad-a02f-5ed4a522102f}, !- Space Name
  Ground,                                 !- Outside Boundary Condition
  ,                                       !- Outside Boundary Condition Object
  NoSun,                                  !- Sun Exposure
  NoWind,                                 !- Wind Exposure
  ,                                       !- View Factor to Ground
  ,                                       !- Number of Vertices
  0, 0, 0,                                !- X,Y,Z Vertex 1 {m}
  0, 15.24, 0,                            !- X,Y,Z Vertex 2 {m}
  4.57, 10.67, 0,                         !- X,Y,Z Vertex 3 {m}
  4.57, 4.57, 0;                          !- X,Y,Z Vertex 4 {m}

OS:Surface,
  {86bbfdde-e8dd-43a3-a360-374b197a2949}, !- Handle
  Surface 2,                              !- Name
  Wall,                                   !- Surface Type
  ,                                       !- Construction Name
  {34b9b29b-9ca2-42ad-a02f-5ed4a522102f}, !- Space Name
  Outdoors,                               !- Outside Boundary Condition
  ,                                       !- Outside Boundary Condition Object
  SunExposed,                             !- Sun Exposure
  WindExposed,                            !- Wind Exposure
  ,                                       !- View Factor to Ground
  ,                                       !- Number of Vertices
  0, 15.24, 3.048,                        !- X,Y,Z Vertex 1 {m}
  0, 15.24, 0,                            !- X,Y,Z Vertex 2 {m}
  0, 0, 0,                                !- X,Y,Z Vertex 3 {m}
  0, 0, 3.048;                            !- X,Y,Z Vertex 4 {m}

OS:Surface,
  {c0b0bb57-527d-44a7-b71a-7ee6a892b23c}, !- Handle
  Surface 3,                              !- Name
  Wall,                                   !- Surface Type
  ,                                       !- Construction Name
  {34b9b29b-9ca2-42ad-a02f-5ed4a522102f}, !- Space Name
  Surface,                                !- Outside Boundary Condition
  {ee9f7e16-e479-49f6-84c5-09722d567e10}, !- Outside Boundary Condition Object
  NoSun,                                  !- Sun Exposure
  NoWind,                                 !- Wind Exposure
  ,                                       !- View Factor to Ground
  ,                                       !- Number of Vertices
  4.57, 10.67, 3.048,                     !- X,Y,Z Vertex 1 {m}
  4.57, 10.67, 0,                         !- X,Y,Z Vertex 2 {m}
  0, 15.24, 0,                            !- X,Y,Z Vertex 3 {m}
  0, 15.24, 3.048;                        !- X,Y,Z Vertex 4 {m}

OS:Surface,
  {da8bf8d9-4c53-4f64-95f0-64ec2cdca19c}, !- Handle
  Surface 4,                              !- Name
  Wall,                                   !- Surface Type
  ,                                       !- Construction Name
  {34b9b29b-9ca2-42ad-a02f-5ed4a522102f}, !- Space Name
  Surface,                                !- Outside Boundary Condition
  {4959935b-2513-4aeb-8687-17ff6488460d}, !- Outside Boundary Condition Object
  NoSun,                                  !- Sun Exposure
  NoWind,                                 !- Wind Exposure
  ,                                       !- View Factor to Ground
  ,                                       !- Number of Vertices
  4.57, 4.57, 3.048,                      !- X,Y,Z Vertex 1 {m}
  4.57, 4.57, 0,                          !- X,Y,Z Vertex 2 {m}
  4.57, 10.67, 0,                         !- X,Y,Z Vertex 3 {m}
  4.57, 10.67, 3.048;                     !- X,Y,Z Vertex 4 {m}

OS:Surface,
  {5dea8ae3-21c6-4559-af21-acb77aca4e3c}, !- Handle
  Surface 5,                              !- Name
  Wall,                                   !- Surface Type
  ,                                       !- Construction Name
  {34b9b29b-9ca2-42ad-a02f-5ed4a522102f}, !- Space Name
  Surface,                                !- Outside Boundary Condition
  {3620e855-1035-4cc6-9d84-7c8e237a314c}, !- Outside Boundary Condition Object
  NoSun,                                  !- Sun Exposure
  NoWind,                                 !- Wind Exposure
  ,                                       !- View Factor to Ground
  ,                                       !- Number of Vertices
  0, 0, 3.048,                            !- X,Y,Z Vertex 1 {m}
  0, 0, 0,                                !- X,Y,Z Vertex 2 {m}
  4.57, 4.57, 0,                          !- X,Y,Z Vertex 3 {m}
  4.57, 4.57, 3.048;                      !- X,Y,Z Vertex 4 {m}

OS:Surface,
  {a2402ea3-636c-47ef-a884-c6589dde73ab}, !- Handle
  Surface 6,                              !- Name
  RoofCeiling,                            !- Surface Type
  ,                                       !- Construction Name
  {34b9b29b-9ca2-42ad-a02f-5ed4a522102f}, !- Space Name
  Surface,                                !- Outside Boundary Condition
  {f878cfe5-0974-4085-9bb1-19d68aa216fa}, !- Outside Boundary Condition Object
  NoSun,                                  !- Sun Exposure
  NoWind,                                 !- Wind Exposure
  ,                                       !- View Factor to Ground
  ,                                       !- Number of Vertices
  4.57, 4.57, 3.048,                      !- X,Y,Z Vertex 1 {m}
  4.57, 10.67, 3.048,                     !- X,Y,Z Vertex 2 {m}
  0, 15.24, 3.048,                        !- X,Y,Z Vertex 3 {m}
  0, 0, 3.048;                            !- X,Y,Z Vertex 4 {m}

OS:Space,
  {57c7ac89-1bf4-4235-afe4-a8bd368b4b26}, !- Handle
  Story 1 North Perimeter Space,          !- Name
  ,                                       !- Space Type Name
  ,                                       !- Default Construction Set Name
  ,                                       !- Default Schedule Set Name
  -0,                                     !- Direction of Relative North {deg}
  4.57,                                   !- X Origin {m}
  10.67,                                  !- Y Origin {m}
  0,                                      !- Z Origin {m}
  {f65acb00-5000-4af2-893c-402853f09320}, !- Building Story Name
  {a456f14c-0218-405b-923d-5545d95fa70e}; !- Thermal Zone Name

OS:Surface,
  {fe4220c5-7b48-4828-ac62-cf3a02ae7f38}, !- Handle
  Surface 7,                              !- Name
  Floor,                                  !- Surface Type
  ,                                       !- Construction Name
  {57c7ac89-1bf4-4235-afe4-a8bd368b4b26}, !- Space Name
  Ground,                                 !- Outside Boundary Condition
  ,                                       !- Outside Boundary Condition Object
  NoSun,                                  !- Sun Exposure
  NoWind,                                 !- Wind Exposure
  ,                                       !- View Factor to Ground
  ,                                       !- Number of Vertices
  -4.57, 4.57, 0,                         !- X,Y,Z Vertex 1 {m}
  25.91, 4.57, 0,                         !- X,Y,Z Vertex 2 {m}
  21.34, 0, 0,                            !- X,Y,Z Vertex 3 {m}
  0, 0, 0;                                !- X,Y,Z Vertex 4 {m}

OS:Surface,
  {814c2198-570b-4e6b-9d46-6fa4627210e8}, !- Handle
  Surface 8,                              !- Name
  Wall,                                   !- Surface Type
  ,                                       !- Construction Name
  {57c7ac89-1bf4-4235-afe4-a8bd368b4b26}, !- Space Name
  Outdoors,                               !- Outside Boundary Condition
  ,                                       !- Outside Boundary Condition Object
  SunExposed,                             !- Sun Exposure
  WindExposed,                            !- Wind Exposure
  ,                                       !- View Factor to Ground
  ,                                       !- Number of Vertices
  25.91, 4.57, 3.048,                     !- X,Y,Z Vertex 1 {m}
  25.91, 4.57, 0,                         !- X,Y,Z Vertex 2 {m}
  -4.57, 4.57, 0,                         !- X,Y,Z Vertex 3 {m}
  -4.57, 4.57, 3.048;                     !- X,Y,Z Vertex 4 {m}

OS:Surface,
  {247aa988-0e61-4040-b643-f89cc577594d}, !- Handle
  Surface 9,                              !- Name
  Wall,                                   !- Surface Type
  ,                                       !- Construction Name
  {57c7ac89-1bf4-4235-afe4-a8bd368b4b26}, !- Space Name
  Surface,                                !- Outside Boundary Condition
  {1846ce80-e3ca-41d8-b705-b9b4c4cafab2}, !- Outside Boundary Condition Object
  NoSun,                                  !- Sun Exposure
  NoWind,                                 !- Wind Exposure
  ,                                       !- View Factor to Ground
  ,                                       !- Number of Vertices
  21.34, 0, 3.048,                        !- X,Y,Z Vertex 1 {m}
  21.34, 0, 0,                            !- X,Y,Z Vertex 2 {m}
  25.91, 4.57, 0,                         !- X,Y,Z Vertex 3 {m}
  25.91, 4.57, 3.048;                     !- X,Y,Z Vertex 4 {m}

OS:Surface,
  {99a2d958-298e-4402-888b-92a21807cf57}, !- Handle
  Surface 10,                             !- Name
  Wall,                                   !- Surface Type
  ,                                       !- Construction Name
  {57c7ac89-1bf4-4235-afe4-a8bd368b4b26}, !- Space Name
  Surface,                                !- Outside Boundary Condition
  {7f498534-9c13-4cd5-b209-8c68bd4c005f}, !- Outside Boundary Condition Object
  NoSun,                                  !- Sun Exposure
  NoWind,                                 !- Wind Exposure
  ,                                       !- View Factor to Ground
  ,                                       !- Number of Vertices
  0, 0, 3.048,                            !- X,Y,Z Vertex 1 {m}
  0, 0, 0,                                !- X,Y,Z Vertex 2 {m}
  21.34, 0, 0,                            !- X,Y,Z Vertex 3 {m}
  21.34, 0, 3.048;                        !- X,Y,Z Vertex 4 {m}

OS:Surface,
  {ee9f7e16-e479-49f6-84c5-09722d567e10}, !- Handle
  Surface 11,                             !- Name
  Wall,                                   !- Surface Type
  ,                                       !- Construction Name
  {57c7ac89-1bf4-4235-afe4-a8bd368b4b26}, !- Space Name
  Surface,                                !- Outside Boundary Condition
  {c0b0bb57-527d-44a7-b71a-7ee6a892b23c}, !- Outside Boundary Condition Object
  NoSun,                                  !- Sun Exposure
  NoWind,                                 !- Wind Exposure
  ,                                       !- View Factor to Ground
  ,                                       !- Number of Vertices
  -4.57, 4.57, 3.048,                     !- X,Y,Z Vertex 1 {m}
  -4.57, 4.57, 0,                         !- X,Y,Z Vertex 2 {m}
  0, 0, 0,                                !- X,Y,Z Vertex 3 {m}
  0, 0, 3.048;                            !- X,Y,Z Vertex 4 {m}

OS:Surface,
  {3716e376-dd03-40f3-944e-97ef15b8e460}, !- Handle
  Surface 12,                             !- Name
  RoofCeiling,                            !- Surface Type
  ,                                       !- Construction Name
  {57c7ac89-1bf4-4235-afe4-a8bd368b4b26}, !- Space Name
  Surface,                                !- Outside Boundary Condition
  {69c14ffb-67e6-453f-8198-79b61832cd20}, !- Outside Boundary Condition Object
  NoSun,                                  !- Sun Exposure
  NoWind,                                 !- Wind Exposure
  ,                                       !- View Factor to Ground
  ,                                       !- Number of Vertices
  0, 0, 3.048,                            !- X,Y,Z Vertex 1 {m}
  21.34, 0, 3.048,                        !- X,Y,Z Vertex 2 {m}
  25.91, 4.57, 3.048,                     !- X,Y,Z Vertex 3 {m}
  -4.57, 4.57, 3.048;                     !- X,Y,Z Vertex 4 {m}

OS:Space,
  {c79a1866-fd83-47f1-abc8-55d92ef62334}, !- Handle
  Story 1 East Perimeter Space,           !- Name
  ,                                       !- Space Type Name
  ,                                       !- Default Construction Set Name
  ,                                       !- Default Schedule Set Name
  -0,                                     !- Direction of Relative North {deg}
  25.91,                                  !- X Origin {m}
  4.57,                                   !- Y Origin {m}
  0,                                      !- Z Origin {m}
  {f65acb00-5000-4af2-893c-402853f09320}, !- Building Story Name
  {523dd2f2-66a6-400d-a286-f4b037661c02}; !- Thermal Zone Name

OS:Surface,
  {b6506dbd-f496-41b1-bde2-e99194017f83}, !- Handle
  Surface 13,                             !- Name
  Floor,                                  !- Surface Type
  ,                                       !- Construction Name
  {c79a1866-fd83-47f1-abc8-55d92ef62334}, !- Space Name
  Ground,                                 !- Outside Boundary Condition
  ,                                       !- Outside Boundary Condition Object
  NoSun,                                  !- Sun Exposure
  NoWind,                                 !- Wind Exposure
  ,                                       !- View Factor to Ground
  ,                                       !- Number of Vertices
  4.57, 10.67, 0,                         !- X,Y,Z Vertex 1 {m}
  4.57, -4.57, 0,                         !- X,Y,Z Vertex 2 {m}
  -3.5527136788005e-015, 0, 0,            !- X,Y,Z Vertex 3 {m}
  -3.5527136788005e-015, 6.1, 0;          !- X,Y,Z Vertex 4 {m}

OS:Surface,
  {93858679-911b-4288-b1c9-89dd82f7c42b}, !- Handle
  Surface 14,                             !- Name
  Wall,                                   !- Surface Type
  ,                                       !- Construction Name
  {c79a1866-fd83-47f1-abc8-55d92ef62334}, !- Space Name
  Outdoors,                               !- Outside Boundary Condition
  ,                                       !- Outside Boundary Condition Object
  SunExposed,                             !- Sun Exposure
  WindExposed,                            !- Wind Exposure
  ,                                       !- View Factor to Ground
  ,                                       !- Number of Vertices
  4.57, -4.57, 3.048,                     !- X,Y,Z Vertex 1 {m}
  4.57, -4.57, 0,                         !- X,Y,Z Vertex 2 {m}
  4.57, 10.67, 0,                         !- X,Y,Z Vertex 3 {m}
  4.57, 10.67, 3.048;                     !- X,Y,Z Vertex 4 {m}

OS:Surface,
  {90e4d77d-3ad9-43d8-8524-d03e899bd940}, !- Handle
  Surface 15,                             !- Name
  Wall,                                   !- Surface Type
  ,                                       !- Construction Name
  {c79a1866-fd83-47f1-abc8-55d92ef62334}, !- Space Name
  Surface,                                !- Outside Boundary Condition
  {f81393c7-b4c8-4542-a251-e48ce0788a7b}, !- Outside Boundary Condition Object
  NoSun,                                  !- Sun Exposure
  NoWind,                                 !- Wind Exposure
  ,                                       !- View Factor to Ground
  ,                                       !- Number of Vertices
  -3.5527136788005e-015, 0, 3.048,        !- X,Y,Z Vertex 1 {m}
  -3.5527136788005e-015, 0, 0,            !- X,Y,Z Vertex 2 {m}
  4.57, -4.57, 0,                         !- X,Y,Z Vertex 3 {m}
  4.57, -4.57, 3.048;                     !- X,Y,Z Vertex 4 {m}

OS:Surface,
  {be56c223-69d1-4b61-ad4e-861a7f75ae1f}, !- Handle
  Surface 16,                             !- Name
  Wall,                                   !- Surface Type
  ,                                       !- Construction Name
  {c79a1866-fd83-47f1-abc8-55d92ef62334}, !- Space Name
  Surface,                                !- Outside Boundary Condition
  {eeed3c37-55fc-48c3-b85e-990faba62818}, !- Outside Boundary Condition Object
  NoSun,                                  !- Sun Exposure
  NoWind,                                 !- Wind Exposure
  ,                                       !- View Factor to Ground
  ,                                       !- Number of Vertices
  -3.5527136788005e-015, 6.1, 3.048,      !- X,Y,Z Vertex 1 {m}
  -3.5527136788005e-015, 6.1, 0,          !- X,Y,Z Vertex 2 {m}
  -3.5527136788005e-015, 0, 0,            !- X,Y,Z Vertex 3 {m}
  -3.5527136788005e-015, 0, 3.048;        !- X,Y,Z Vertex 4 {m}

OS:Surface,
  {1846ce80-e3ca-41d8-b705-b9b4c4cafab2}, !- Handle
  Surface 17,                             !- Name
  Wall,                                   !- Surface Type
  ,                                       !- Construction Name
  {c79a1866-fd83-47f1-abc8-55d92ef62334}, !- Space Name
  Surface,                                !- Outside Boundary Condition
  {247aa988-0e61-4040-b643-f89cc577594d}, !- Outside Boundary Condition Object
  NoSun,                                  !- Sun Exposure
  NoWind,                                 !- Wind Exposure
  ,                                       !- View Factor to Ground
  ,                                       !- Number of Vertices
  4.57, 10.67, 3.048,                     !- X,Y,Z Vertex 1 {m}
  4.57, 10.67, 0,                         !- X,Y,Z Vertex 2 {m}
  -3.5527136788005e-015, 6.1, 0,          !- X,Y,Z Vertex 3 {m}
  -3.5527136788005e-015, 6.1, 3.048;      !- X,Y,Z Vertex 4 {m}

OS:Surface,
  {83e94105-79f6-437d-adc4-944a8640fc9b}, !- Handle
  Surface 18,                             !- Name
  RoofCeiling,                            !- Surface Type
  ,                                       !- Construction Name
  {c79a1866-fd83-47f1-abc8-55d92ef62334}, !- Space Name
  Surface,                                !- Outside Boundary Condition
  {707c38b7-a489-49ee-910e-ab4a3fa32fb0}, !- Outside Boundary Condition Object
  NoSun,                                  !- Sun Exposure
  NoWind,                                 !- Wind Exposure
  ,                                       !- View Factor to Ground
  ,                                       !- Number of Vertices
  -3.5527136788005e-015, 6.1, 3.048,      !- X,Y,Z Vertex 1 {m}
  -3.5527136788005e-015, 0, 3.048,        !- X,Y,Z Vertex 2 {m}
  4.57, -4.57, 3.048,                     !- X,Y,Z Vertex 3 {m}
  4.57, 10.67, 3.048;                     !- X,Y,Z Vertex 4 {m}

OS:Space,
  {74d98365-788f-4256-8cc0-f77f05bf3422}, !- Handle
  Story 1 South Perimeter Space,          !- Name
  ,                                       !- Space Type Name
  ,                                       !- Default Construction Set Name
  ,                                       !- Default Schedule Set Name
  -0,                                     !- Direction of Relative North {deg}
  0,                                      !- X Origin {m}
  0,                                      !- Y Origin {m}
  0,                                      !- Z Origin {m}
  {f65acb00-5000-4af2-893c-402853f09320}, !- Building Story Name
  {c50a8ea8-a59d-4091-8ac7-c91d095abbf1}; !- Thermal Zone Name

OS:Surface,
  {9b88e1f4-5c38-4edc-91dd-b8a214fb4e9c}, !- Handle
  Surface 19,                             !- Name
  Floor,                                  !- Surface Type
  ,                                       !- Construction Name
  {74d98365-788f-4256-8cc0-f77f05bf3422}, !- Space Name
  Ground,                                 !- Outside Boundary Condition
  ,                                       !- Outside Boundary Condition Object
  NoSun,                                  !- Sun Exposure
  NoWind,                                 !- Wind Exposure
  ,                                       !- View Factor to Ground
  ,                                       !- Number of Vertices
  30.48, 0, 0,                            !- X,Y,Z Vertex 1 {m}
  0, 0, 0,                                !- X,Y,Z Vertex 2 {m}
  4.57, 4.57, 0,                          !- X,Y,Z Vertex 3 {m}
  25.91, 4.57, 0;                         !- X,Y,Z Vertex 4 {m}

OS:Surface,
  {54b2ab9d-348f-4c90-86b8-be3c898ad796}, !- Handle
  Surface 20,                             !- Name
  Wall,                                   !- Surface Type
  ,                                       !- Construction Name
  {74d98365-788f-4256-8cc0-f77f05bf3422}, !- Space Name
  Outdoors,                               !- Outside Boundary Condition
  ,                                       !- Outside Boundary Condition Object
  SunExposed,                             !- Sun Exposure
  WindExposed,                            !- Wind Exposure
  ,                                       !- View Factor to Ground
  ,                                       !- Number of Vertices
  0, 0, 3.048,                            !- X,Y,Z Vertex 1 {m}
  0, 0, 0,                                !- X,Y,Z Vertex 2 {m}
  30.48, 0, 0,                            !- X,Y,Z Vertex 3 {m}
  30.48, 0, 3.048;                        !- X,Y,Z Vertex 4 {m}

OS:Surface,
  {3620e855-1035-4cc6-9d84-7c8e237a314c}, !- Handle
  Surface 21,                             !- Name
  Wall,                                   !- Surface Type
  ,                                       !- Construction Name
  {74d98365-788f-4256-8cc0-f77f05bf3422}, !- Space Name
  Surface,                                !- Outside Boundary Condition
  {5dea8ae3-21c6-4559-af21-acb77aca4e3c}, !- Outside Boundary Condition Object
  NoSun,                                  !- Sun Exposure
  NoWind,                                 !- Wind Exposure
  ,                                       !- View Factor to Ground
  ,                                       !- Number of Vertices
  4.57, 4.57, 3.048,                      !- X,Y,Z Vertex 1 {m}
  4.57, 4.57, 0,                          !- X,Y,Z Vertex 2 {m}
  0, 0, 0,                                !- X,Y,Z Vertex 3 {m}