
Version,
  8.0;                                    !- Version Identifier

Building,
  Medium Office,                          !- Name
  -0,                                     !- North Axis {deg}
  ,                                       !- Terrain
  0.04,                                   !- Loads Convergence Tolerance Value
  0.4,                                    !- Temperature Convergence Tolerance Value {deltaC}
  FullExterior,                           !- Solar Distribution
  25,                                     !- Maximum Number of Warmup Days
  ;                                       !- Minimum Number of Warmup Days

! OS:Building, Medium Office
LifeCycleCost:NonrecurringCost,
  LCC_Mat - Building - Life Cycle Costs,  !- Name
  Construction,                           !- Category
  2000,                                   !- Cost
  ServicePeriod;                          !- Start of Costs

Zone,
  Thermal Zone 1,                         !- Name
  ,                                       !- Direction of Relative North {deg}
  1.21822272257156,                       !- X Origin {m}
  0.877596434484924,                      !- Y Origin {m}
  0,                                      !- Z Origin {m}
  ,                                       !- Type
  ,                                       !- Multiplier
  ,                                       !- Ceiling Height {m}
  ,                                       !- Volume {m3}
  ,                                       !- Floor Area {m2}
  ,                                       !- Zone Inside Convection Algorithm
  ;                                       !- Zone Outside Convection Algorithm

BuildingSurface:Detailed,
  Surface 1,                              !- Name
  Floor,                                  !- Surface Type
  000 ExtSlabCarpet 4in ClimateZone 1-8,  !- Construction Name
  Thermal Zone 1,                         !- Zone Name
  Ground,                                 !- Outside Boundary Condition
  ,                                       !- Outside Boundary Condition Object
  NoSun,                                  !- Sun Exposure
  NoWind,                                 !- Wind Exposure
  ,                                       !- View Factor to Ground
  ,                                       !- Number of Vertices
  3.048, 3.048, 0,                        !- X,Y,Z Vertex 1 {m}
  3.048, 0, 0,                            !- X,Y,Z Vertex 2 {m}
  0, 0, 0,                                !- X,Y,Z Vertex 3 {m}
  0, 3.048, 0;                            !- X,Y,Z Vertex 4 {m}

BuildingSurface:Detailed,
  Surface 2,                              !- Name
  Wall,                                   !- Surface Type
  ASHRAE 189.1-2009 ExtWall SteelFrame ClimateZone 4-8, !- Construction Name
  Thermal Zone 1,                         !- Zone Name
  Outdoors,                               !- Outside Boundary Condition
  ,                                       !- Outside Boundary Condition Object
  SunExposed,                             !- Sun Exposure
  WindExposed,                            !- Wind Exposure
  ,                                       !- View Factor to Ground
  ,                                       !- Number of Vertices
  0, 3.048, 3.048,                        !- X,Y,Z Vertex 1 {m}
  0, 3.048, 0,                            !- X,Y,Z Vertex 2 {m}
  0, 0, 0,                                !- X,Y,Z Vertex 3 {m}
  0, 0, 3.048;                            !- X,Y,Z Vertex 4 {m}

BuildingSurface:Detailed,
  Surface 3,                              !- Name
  Wall,                                   !- Surface Type
  ASHRAE 189.1-2009 ExtWall SteelFrame ClimateZone 4-8, !- Construction Name
  Thermal Zone 1,                         !- Zone Name
  Outdoors,                               !- Outside Boundary Condition
  ,                                       !- Outside Boundary Condition Object
  SunExposed,                             !- Sun Exposure
  WindExposed,                            !- Wind Exposure
  ,                                       !- View Factor to Ground
  ,                                       !- Number of Vertices
  3.048, 3.048, 3.048,                    !- X,Y,Z Vertex 1 {m}
  3.048, 3.048, 0,                        !- X,Y,Z Vertex 2 {m}
  0, 3.048, 0,                            !- X,Y,Z Vertex 3 {m}
  0, 3.048, 3.048;                        !- X,Y,Z Vertex 4 {m}

BuildingSurface:Detailed,
  Surface 4,                              !- Name
  Wall,                                   !- Surface Type
  ASHRAE 189.1-2009 ExtWall SteelFrame ClimateZone 4-8, !- Construction Name
  Thermal Zone 1,                         !- Zone Name
  Outdoors,                               !- Outside Boundary Condition
  ,                                       !- Outside Boundary Condition Object
  SunExposed,                             !- Sun Exposure
  WindExposed,                            !- Wind Exposure
  ,                                       !- View Factor to Ground
  ,                                       !- Number of Vertices
  3.048, 0, 3.048,                        !- X,Y,Z Vertex 1 {m}
  3.048, 0, 0,                            !- X,Y,Z Vertex 2 {m}
  3.048, 3.048, 0,                        !- X,Y,Z Vertex 3 {m}
  3.048, 3.048, 3.048;                    !- X,Y,Z Vertex 4 {m}

BuildingSurface:Detailed,
  Surface 5,                              !- Name
  Wall,                                   !- Surface Type
  ASHRAE 189.1-2009 ExtWall SteelFrame ClimateZone 4-8, !- Construction Name
  Thermal Zone 1,                         !- Zone Name
  Outdoors,                               !- Outside Boundary Condition
  ,                                       !- Outside Boundary Condition Object
  SunExposed,                             !- Sun Exposure
  WindExposed,                            !- Wind Exposure
  ,                                       !- View Factor to Ground
  ,                                       !- Number of Vertices
  0, 0, 3.048,                            !- X,Y,Z Vertex 1 {m}
  0, 0, 0,                                !- X,Y,Z Vertex 2 {m}
  3.048, 0, 0,                            !- X,Y,Z Vertex 3 {m}
  3.048, 0, 3.048;                        !- X,Y,Z Vertex 4 {m}

BuildingSurface:Detailed,
  Surface 6,                              !- Name
  Roof,                                   !- Surface Type
  ASHRAE 189.1-2009 ExtRoof IEAD ClimateZone 2-5, !- Construction Name
  Thermal Zone 1,                         !- Zone Name
  Outdoors,                               !- Outside Boundary Condition
  ,                                       !- Outside Boundary Condition Object
  SunExposed,                             !- Sun Exposure
  WindExposed,                            !- Wind Exposure
  ,                                       !- View Factor to Ground
  ,                                       !- Number of Vertices
  3.048, 0, 3.048,                        !- X,Y,Z Vertex 1 {m}
  3.048, 3.048, 3.048,                    !- X,Y,Z Vertex 2 {m}
  0, 3.048, 3.048,                        !- X,Y,Z Vertex 3 {m}
  0, 0, 3.048;                            !- X,Y,Z Vertex 4 {m}

SimulationControl,
  No,                                     !- Do Zone Sizing Calculation
  No,                                     !- Do System Sizing Calculation
  No,                                     !- Do Plant Sizing Calculation
  No,                                     !- Run Simulation for Sizing Periods
  Yes;                                    !- Run Simulation for Weather File Run Periods

ConvergenceLimits,
  1;                                      !- Minimum System Timestep {minutes}

HeatBalanceAlgorithm,
  ConductionTransferFunction,             !- Algorithm
  200;                                    !- Surface Temperature Upper Limit {C}

RunPeriod,
  Run Period 1,                           !- Name
  1,                                      !- Begin Month
  1,                                      !- Begin Day of Month
  12,                                     !- End Month
  31,                                     !- End Day of Month
  Sunday,                                 !- Day of Week for Start Day
  No,                                     !- Use Weather File Holidays and Special Days
  No,                                     !- Use Weather File Daylight Saving Period
  No,                                     !- Apply Weekend Holiday Rule
  Yes,                                    !- Use Weather File Rain Indicators
  Yes,                                    !- Use Weather File Snow Indicators
  1;                                      !- Number of Times Runperiod to be Repeated

ShadowCalculation,
  AverageOverDaysInFrequency,             !- Calculation Method
  7,                                      !- Calculation Frequency
  15000;                                  !- Maximum Figures in Shadow Overlap Calculations

SurfaceConvectionAlgorithm:Inside,
  TARP;                                   !- Algorithm

SurfaceConvectionAlgorithm:Outside,
  DOE-2;                                  !- Algorithm

Timestep,
  4;                                      !- Number of Timesteps per Hour

Sizing:Parameters,
  1.25,                                   !- Heating Sizing Factor
  1.15;                                   !- Cooling Sizing Factor

ZoneAirHeatBalanceAlgorithm,
  AnalyticalSolution;                     !- Algorithm

ProgramControl,
  1;                                      !- Number of Threads Allowed

GlobalGeometryRules,
  UpperLeftCorner,                        !- Starting Vertex Position
  Counterclockwise,                       !- Vertex Entry Direction
  Relative,                               !- Coordinate System
  Relative,                               !- Daylighting Reference Point Coordinate System
  Relative;                               !- Rectangular Surface Coordinate System

Material,
  000 F08 Metal surface,                  !- Name
  Smooth,                                 !- Roughness
  0.0008,                                 !- Thickness {m}
  45.28,                                  !- Conductivity {W/m-K}
  7824,                                   !- Density {kg/m3}
  500,                                    !- Specific Heat {J/kg-K}
  0.9,                                    !- Thermal Absorptance
  0.7,                                    !- Solar Absorptance
  0.7;                                    !- Visible Absorptance

Material,
  000 F16 Acoustic tile,                  !- Name
  MediumSmooth,                           !- Roughness
  0.0191,                                 !- Thickness {m}
  0.06,                                   !- Conductivity {W/m-K}
  368,                                    !- Density {kg/m3}
  590,                                    !- Specific Heat {J/kg-K}
  0.9,                                    !- Thermal Absorptance
  0.7,                                    !- Solar Absorptance
  0.7;                                    !- Visible Absorptance

Material,
  000 G01a 19mm gypsum board,             !- Name
  MediumSmooth,                           !- Roughness
  0.019,                                  !- Thickness {m}
  0.16,                                   !- Conductivity {W/m-K}
  800,                                    !- Density {kg/m3}
  1090,                                   !- Specific Heat {J/kg-K}
  0.9,                                    !- Thermal Absorptance
  0.7,                                    !- Solar Absorptance
  0.7;                                    !- Visible Absorptance

Material,
  000 G05 25mm wood,                      !- Name
  MediumSmooth,                           !- Roughness
  0.0254,                                 !- Thickness {m}
  0.15,                                   !- Conductivity {W/m-K}
  608,                                    !- Density {kg/m3}
  1630,                                   !- Specific Heat {J/kg-K}
  0.9,                                    !- Thermal Absorptance
  0.7,                                    !- Solar Absorptance
  0.7;                                    !- Visible Absorptance

Material,
  000 I01 25mm insulation board,          !- Name
  MediumRough,                            !- Roughness
  0.0254,                                 !- Thickness {m}
  0.03,                                   !- Conductivity {W/m-K}
  43,                                     !- Density {kg/m3}
  1210,                                   !- Specific Heat {J/kg-K}
  0.9,                                    !- Thermal Absorptance
  0.7,                                    !- Solar Absorptance
  0.7;                                    !- Visible Absorptance

Material,
  000 M11 100mm lightweight concrete,     !- Name
  MediumRough,                            !- Roughness
  0.1016,                                 !- Thickness {m}
  0.53,                                   !- Conductivity {W/m-K}
  1280,                                   !- Density {kg/m3}
  840,                                    !- Specific Heat {J/kg-K}
  0.9,                                    !- Thermal Absorptance
  0.7,                                    !- Solar Absorptance
  0.7;                                    !- Visible Absorptance

Material,
  1/2IN Gypsum,                           !- Name
  Smooth,                                 !- Roughness
  0.0127,                                 !- Thickness {m}
  0.16,                                   !- Conductivity {W/m-K}
  784.9,                                  !- Density {kg/m3}
  830,                                    !- Specific Heat {J/kg-K}
  0.9,                                    !- Thermal Absorptance
  0.92,                                   !- Solar Absorptance
  0.92;                                   !- Visible Absorptance

Material,
  MAT-CC05 4 HW CONCRETE,                 !- Name
  Rough,                                  !- Roughness
  0.1016,                                 !- Thickness {m}
  1.311,                                  !- Conductivity {W/m-K}
  2240,                                   !- Density {kg/m3}
  836.8,                                  !- Specific Heat {J/kg-K}
  0.9,                                    !- Thermal Absorptance
  0.7,                                    !- Solar Absorptance
  0.7;                                    !- Visible Absorptance

Material,
  Metal Decking,                          !- Name
  MediumSmooth,                           !- Roughness
  0.0015,                                 !- Thickness {m}
  45.006,                                 !- Conductivity {W/m-K}
  7680,                                   !- Density {kg/m3}
  418.4,                                  !- Specific Heat {J/kg-K}
  0.9,                                    !- Thermal Absorptance
  0.7,                                    !- Solar Absorptance
  0.3;                                    !- Visible Absorptance

Material,
  Roof Insulation [21],                   !- Name
  MediumRough,                            !- Roughness
  0.2105,                                 !- Thickness {m}
  0.049,                                  !- Conductivity {W/m-K}
  265,                                    !- Density {kg/m3}
  836.8,                                  !- Specific Heat {J/kg-K}
  0.9,                                    !- Thermal Absorptance
  0.7,                                    !- Solar Absorptance
  0.7;                                    !- Visible Absorptance

Material,
  Roof Membrane,                          !- Name
  VeryRough,                              !- Roughness
  0.0095,                                 !- Thickness {m}
  0.16,                                   !- Conductivity {W/m-K}
  1121.29,                                !- Density {kg/m3}
  1460,                                   !- Specific Heat {J/kg-K}
  0.9,                                    !- Thermal Absorptance
  0.7,                                    !- Solar Absorptance
  0.7;                                    !- Visible Absorptance

Material,
  Wall Insulation [39],                   !- Name
  MediumRough,                            !- Roughness
  0.1184,                                 !- Thickness {m}
  0.045,                                  !- Conductivity {W/m-K}
  265,                                    !- Density {kg/m3}
  836.8,                                  !- Specific Heat {J/kg-K}
  0.9,                                    !- Thermal Absorptance
  0.7,                                    !- Solar Absorptance
  0.7;                                    !- Visible Absorptance

Material:AirGap,
  000 F04 Wall air space resistance,      !- Name
  0.15;                                   !- Thermal Resistance {m2-K/W}

Material:AirGap,
  000 F05 Ceiling air space resistance,   !- Name
  0.18;                                   !- Thermal Resistance {m2-K/W}

Material,
  OS:Material:AirWall 1,                  !- Name
  MediumSmooth,                           !- Roughness
  0.01,                                   !- Thickness {m}
  0.6,                                    !- Conductivity {W/m-K}
  800,                                    !- Density {kg/m3}
  1000,                                   !- Specific Heat {J/kg-K}
  0.95,                                   !- Thermal Absorptance
  0.7,                                    !- Solar Absorptance
  0.7;                                    !- Visible Absorptance

Material:NoMass,
  CP02 CARPET PAD,                        !- Name
  VeryRough,                              !- Roughness
  0.2165,                                 !- Thermal Resistance {m2-K/W}
  0.9,                                    !- Thermal Absorptance
  0.7,                                    !- Solar Absorptance
  0.8;                                    !- Visible Absorptance

Material:NoMass,
  MAT-SHEATH,                             !- Name
  Rough,                                  !- Roughness
  0.3626,                                 !- Thermal Resistance {m2-K/W}
  0.9,                                    !- Thermal Absorptance
  0.7,                                    !- Solar Absorptance
  0.7;                                    !- Visible Absorptance

WindowMaterial:Gas,
  000 Air 13mm,                           !- Name
  Air,                                    !- Gas Type
  0.0127;                                 !- Thickness {m}

WindowMaterial:Glazing,
  000 Clear 3mm,                          !- Name
  SpectralAverage,                        !- Optical Data Type
  ,                                       !- Window Glass Spectral Data Set Name
  0.003,                                  !- Thickness {m}
  0.837,                                  !- Solar Transmittance at Normal Incidence
  0.075,                                  !- Front Side Solar Reflectance at Normal Incidence
  0.075,                                  !- Back Side Solar Reflectance at Normal Incidence
  0.898,                                  !- Visible Transmittance at Normal Incidence
  0.081,                                  !- Front Side Visible Reflectance at Normal Incidence
  0.081,                                  !- Back Side Visible Reflectance at Normal Incidence
  0,                                      !- Infrared Transmittance at Normal Incidence
  0.84,                                   !- Front Side Infrared Hemispherical Emissivity
  0.84,                                   !- Back Side Infrared Hemispherical Emissivity
  0.9;                                    !- Conductivity {W/m-K}

WindowMaterial:Glazing,
  Theoretical Glass [207],                !- Name
  SpectralAverage,                        !- Optical Data Type
  ,                                       !- Window Glass Spectral Data Set Name
  0.003,                                  !- Thickness {m}
  0.3311,                                 !- Solar Transmittance at Normal Incidence
  0.6189,                                 !- Front Side Solar Reflectance at Normal Incidence
  0.6189,                                 !- Back Side Solar Reflectance at Normal Incidence
  0.44,                                   !- Visible Transmittance at Normal Incidence
  0.51,                                   !- Front Side Visible Reflectance at Normal Incidence
  0.51,                                   !- Back Side Visible Reflectance at Normal Incidence
  0,                                      !- Infrared Transmittance at Normal Incidence
  0.9,                                    !- Front Side Infrared Hemispherical Emissivity
  0.9,                                    !- Back Side Infrared Hemispherical Emissivity
  0.0133,                                 !- Conductivity {W/m-K}
  1,                                      !- Dirt Correction Factor for Solar and Visible Transmittance
  No;                                     !- Solar Diffusing

Construction,
  000 Exterior Door,                      !- Name
  000 F08 Metal surface,                  !- Layer 1
  000 I01 25mm insulation board;          !- Layer 2

Construction,
  000 Exterior Window,                    !- Name
  000 Clear 3mm,                          !- Layer 1
  000 Air 13mm,                           !- Layer 2
  000 Clear 3mm;                          !- Layer 3

Construction,
  000 ExtSlabCarpet 4in ClimateZone 1-8,  !- Name
  MAT-CC05 4 HW CONCRETE,                 !- Layer 1
  CP02 CARPET PAD;                        !- Layer 2

Construction,
  000 Interior Ceiling,                   !- Name
  000 M11 100mm lightweight concrete,     !- Layer 1
  000 F05 Ceiling air space resistance,   !- Layer 2
  000 F16 Acoustic tile;                  !- Layer 3

Construction,
  000 Interior Door,                      !- Name
  000 G05 25mm wood;                      !- Layer 1

Construction,
  000 Interior Floor,                     !- Name
  000 F16 Acoustic tile,                  !- Layer 1
  000 F05 Ceiling air space resistance,   !- Layer 2
  000 M11 100mm lightweight concrete;     !- Layer 3

Construction,
  000 Interior Partition,                 !- Name
  000 G05 25mm wood;                      !- Layer 1

Construction,
  000 Interior Wall,                      !- Name
  000 G01a 19mm gypsum board,             !- Layer 1
  000 F04 Wall air space resistance,      !- Layer 2
  000 G01a 19mm gypsum board;             !- Layer 3

Construction,
  000 Interior Window,                    !- Name
  000 Clear 3mm;                          !- Layer 1

Construction,
  Air Wall,                               !- Name
  OS:Material:AirWall 1;                  !- Layer 1

Construction,
  ASHRAE 189.1-2009 ExtRoof IEAD ClimateZone 2-5, !- Name
  Roof Membrane,                          !- Layer 1
  Roof Insulation [21],                   !- Layer 2
  Metal Decking;                          !- Layer 3

Construction,
  ASHRAE 189.1-2009 ExtWall SteelFrame ClimateZone 4-8, !- Name
  MAT-SHEATH,                             !- Layer 1
  Wall Insulation [39],                   !- Layer 2
  1/2IN Gypsum;                           !- Layer 3

! OS:Construction, ASHRAE 189.1-2009 ExtWall SteelFrame ClimateZone 4-8
LifeCycleCost:NonrecurringCost,
  LCC_Mat - ASHRAE 189.1-2009 ExtWall SteelFrame ClimateZone 4-8, !- Name
  Construction,                           !- Category
  6000.00000000001,                       !- Cost
  ServicePeriod;                          !- Start of Costs

! OS:Construction, ASHRAE 189.1-2009 ExtWall SteelFrame ClimateZone 4-8
LifeCycleCost:RecurringCosts,
  LCC_Mat - ASHRAE 189.1-2009 ExtWall SteelFrame ClimateZone 4-8 Replacement, !- Name
  Replacement,                            !- Category
  6000.00000000001,                       !- Cost
  ServicePeriod,                          !- Start of Costs
  6,                                      !- Years from Start
  ,                                       !- Months from Start
  6;                                      !- Repeat Period Years

! OS:Construction, ASHRAE 189.1-2009 ExtWall SteelFrame ClimateZone 4-8
LifeCycleCost:NonrecurringCost,
  LCC_Demo - ASHRAE 189.1-2009 ExtWall SteelFrame ClimateZone 4-8, !- Name
  Salvage,                                !- Category
  929.0304,                               !- Cost
  ServicePeriod,                          !- Start of Costs
  6;                                      !- Years from Start

! OS:Construction, ASHRAE 189.1-2009 ExtWall SteelFrame ClimateZone 4-8
LifeCycleCost:RecurringCosts,
  LCC_Demo - ASHRAE 189.1-2009 ExtWall SteelFrame ClimateZone 4-8 Recurring, !- Name
  Replacement,                            !- Category
  929.0304,                               !- Cost
  ServicePeriod,                          !- Start of Costs
  12,                                     !- Years from Start
  ,                                       !- Months from Start
  6;                                      !- Repeat Period Years

! OS:Construction, ASHRAE 189.1-2009 ExtWall SteelFrame ClimateZone 4-8
LifeCycleCost:RecurringCosts,
  LCC_OM - ASHRAE 189.1-2009 ExtWall SteelFrame ClimateZone 4-8, !- Name
  Maintenance,                            !- Category
  399.999999999999,                       !- Cost
  ServicePeriod,                          !- Start of Costs
  ,                                       !- Years from Start
  ,                                       !- Months from Start
  2;                                      !- Repeat Period Years

Construction,
  ASHRAE 189.1-2009 ExtWindow ClimateZone 4-5, !- Name
  Theoretical Glass [207];                !- Layer 1

ScheduleTypeLimits,
  ActivityLevel,                          !- Name
  0,                                      !- Lower Limit Value {BasedOnField A3}
  ,                                       !- Upper Limit Value {BasedOnField A3}
  Continuous,                             !- Numeric Type
  activitylevel;                          !- Unit Type

ScheduleTypeLimits,
  Always On Discrete Limits,              !- Name
  0,                                      !- Lower Limit Value {BasedOnField A3}
  1,                                      !- Upper Limit Value {BasedOnField A3}
  Discrete,                               !- Numeric Type
  availability;                           !- Unit Type

ScheduleTypeLimits,
  Any Number;                             !- Name

ScheduleTypeLimits,
  Control Type,                           !- Name
  0,                                      !- Lower Limit Value {BasedOnField A3}
  4,                                      !- Upper Limit Value {BasedOnField A3}
  DISCRETE;                               !- Numeric Type

ScheduleTypeLimits,
  Fraction,                               !- Name
  0,                                      !- Lower Limit Value {BasedOnField A3}
  1,                                      !- Upper Limit Value {BasedOnField A3}
  CONTINUOUS;                             !- Numeric Type

ScheduleTypeLimits,
  On/Off,                                 !- Name
  0,                                      !- Lower Limit Value {BasedOnField A3}
  1,                                      !- Upper Limit Value {BasedOnField A3}
  DISCRETE;                               !- Numeric Type

ScheduleTypeLimits,
  Temperature 1,                          !- Name
  ,                                       !- Lower Limit Value {BasedOnField A3}
  ,                                       !- Upper Limit Value {BasedOnField A3}
  Continuous,                             !- Numeric Type
  temperature;                            !- Unit Type

ScheduleTypeLimits,
  Temperature 2,                          !- Name
  ,                                       !- Lower Limit Value {BasedOnField A3}
  ,                                       !- Upper Limit Value {BasedOnField A3}
  Continuous,                             !- Numeric Type
  temperature;                            !- Unit Type

Schedule:Constant,
  Always On Discrete,                     !- Name
  Always On Discrete Limits,              !- Schedule Type Limits Name
  1;                                      !- Hourly Value

Schedule:Day:Interval,
  Always Off Default Schedule,            !- Name
  On/Off,                                 !- Schedule Type Limits Name
  No,                                     !- Interpolate to Timestep
  24:00,                                  !- Time 1 {hh:mm}
  0;                                      !- Value Until Time 1

Schedule:Day:Interval,
  Always Off Summer Design Day,           !- Name
  On/Off,                                 !- Schedule Type Limits Name
  No,                                     !- Interpolate to Timestep
  24:00,                                  !- Time 1 {hh:mm}
  0;                                      !- Value Until Time 1

Schedule:Day:Interval,
  Always Off Winter Design Day,           !- Name
  On/Off,                                 !- Schedule Type Limits Name
  No,                                     !- Interpolate to Timestep
  24:00,                                  !- Time 1 {hh:mm}
  0;                                      !- Value Until Time 1

Schedule:Day:Interval,
  Always On Default Schedule,             !- Name
  On/Off,                                 !- Schedule Type Limits Name
  No,                                     !- Interpolate to Timestep
  24:00,                                  !- Time 1 {hh:mm}
  1;                                      !- Value Until Time 1

Schedule:Day:Interval,
  Always On Summer Design Day,            !- Name
  On/Off,                                 !- Schedule Type Limits Name
  No,                                     !- Interpolate to Timestep
  24:00,                                  !- Time 1 {hh:mm}
  1;                                      !- Value Until Time 1

Schedule:Day:Interval,
  Always On Winter Design Day,            !- Name